/TITLE, CONTINUUM GROUND STRUCTURE
! Created with:       FlExtract v1.13
! Element type:       PLANE42
! Number of nodes:    3003
! Number of elements: 2000

/PREP7
! Element type: ET, type #, name
ET, 1, PLANE42, , , 3

! Nodal coordinates: 'N', node_id, x-coord, y-coord, z-coord
N,	1,	0,	0,	0
N,	2,	0,	1,	0
N,	3,	0,	2,	0
N,	4,	1,	0,	0
N,	5,	1,	1,	0
N,	6,	1,	2,	0
N,	7,	2,	0,	0
N,	8,	2,	1,	0
N,	9,	2,	2,	0
N,	10,	3,	0,	0
N,	11,	3,	1,	0
N,	12,	3,	2,	0
N,	13,	4,	0,	0
N,	14,	4,	1,	0
N,	15,	4,	2,	0
N,	16,	5,	0,	0
N,	17,	5,	1,	0
N,	18,	5,	2,	0
N,	19,	6,	0,	0
N,	20,	6,	1,	0
! ... 2983 like lines cut

! Element connectivity: 'EN', element_id,  node_ids
! Material:             'MP', property_id, material_id, value 
! Custom property:      'R',  property_id, value 
! Material 1
MP,	EX,  	1,	1
MP,	EY,  	1,	0
MP,	GXY, 	1,	0
MP,	PRXY,	1,	0.3
MP,	DENS,	1,	1000
R, 	1,	1
! Connectivity
EN,	1,	1,	4,	5,	2
EN,	2,	2,	5,	6,	3
EN,	3,	4,	7,	8,	5
EN,	4,	5,	8,	9,	6
EN,	5,	7,	10,	11,	8
EN,	6,	8,	11,	12,	9
EN,	7,	10,	13,	14,	11
EN,	8,	11,	14,	15,	12
EN,	9,	13,	16,	17,	14
EN,	10,	14,	17,	18,	15
EN,	11,	16,	19,	20,	17
EN,	12,	17,	20,	21,	18
EN,	13,	19,	22,	23,	20
EN,	14,	20,	23,	24,	21
EN,	15,	22,	25,	26,	23
EN,	16,	23,	26,	27,	24
EN,	17,	25,	28,	29,	26
EN,	18,	26,	29,	30,	27
EN,	19,	28,	31,	32,	29
EN,	20,	29,	32,	33,	30
! ... 1980 like lines cut

! Nodal diplacement: 'D', node_id, 'UX / UY', value
D, 1, UX, 0.0
D, 1, UY, 0.0
D, 3, UX, 0.0
! Nodal load: 'F', node_id, 'FX / FY', value
F, 3001, FX, 1
F, 3003, FX, -1

! Surface load: 'SFE', element_id, face_id, 'PRES', 0, value

! Acceleration: 'ACEL', x-value, y-value, z-value
ACEL,	0.0,	0.0,	0.0

FINISH
