/TITLE, CONTINUUM GROUND STRUCTURE
! Created with:       FlExtract v1.13
! Element type:       PLANE42
! Number of nodes:    3003
! Number of elements: 2000

/PREP7
! Element type: ET, type #, name
ET, 1, PLANE42, , , 3

! Nodal coordinates: 'N', node_id, x-coord, y-coord, z-coord
N,	1,	0,	0,	0
N,	2,	0,	1,	0
N,	3,	0,	2,	0
N,	4,	0,	3,	0
N,	5,	0,	4,	0
N,	6,	0,	5,	0
N,	7,	0,	6,	0
N,	8,	0,	7,	0
N,	9,	0,	8,	0
N,	10,	0,	9,	0
N,	11,	0,	10,	0
N,	12,	0,	11,	0
N,	13,	0,	12,	0
N,	14,	0,	13,	0
N,	15,	0,	14,	0
N,	16,	0,	15,	0
N,	17,	0,	16,	0
N,	18,	0,	17,	0
N,	19,	0,	18,	0
N,	20,	0,	19,	0
! ... 2983 like lines cut

! Element connectivity: 'EN', element_id,  node_ids
! Material:             'MP', property_id, material_id, value 
! Custom property:      'R',  property_id, value 
! Material 1
MP,	EX,  	1,	1
MP,	EY,  	1,	0
MP,	GXY, 	1,	0
MP,	PRXY,	1,	0.3
MP,	DENS,	1,	1000
R, 	1,	1
! Connectivity
EN,	1,	1,	1002,	1003,	2
EN,	2,	2,	1003,	1004,	3
EN,	3,	3,	1004,	1005,	4
EN,	4,	4,	1005,	1006,	5
EN,	5,	5,	1006,	1007,	6
EN,	6,	6,	1007,	1008,	7
EN,	7,	7,	1008,	1009,	8
EN,	8,	8,	1009,	1010,	9
EN,	9,	9,	1010,	1011,	10
EN,	10,	10,	1011,	1012,	11
EN,	11,	11,	1012,	1013,	12
EN,	12,	12,	1013,	1014,	13
EN,	13,	13,	1014,	1015,	14
EN,	14,	14,	1015,	1016,	15
EN,	15,	15,	1016,	1017,	16
EN,	16,	16,	1017,	1018,	17
EN,	17,	17,	1018,	1019,	18
EN,	18,	18,	1019,	1020,	19
EN,	19,	19,	1020,	1021,	20
EN,	20,	20,	1021,	1022,	21
! ... 1980 like lines cut

! Nodal diplacement: 'D', node_id, 'UX / UY', value
D, 1, UX, 0.0
D, 1, UY, 0.0
D, 1001, UX, 0.0
! Nodal load: 'F', node_id, 'FX / FY', value
F, 2003, FX, 1
F, 3003, FX, -1
! Surface load: 'SFE', element_id, face_id, 'PRES', 0, value

! Acceleration: 'ACEL', x-value, y-value, z-value
ACEL,	0.0,	0.0,	0.0

FINISH
