/TITLE, CONTINUUM GROUND STRUCTURE
! Created with:       FlExtract v1.13
! Element type:       PLANE42
! Number of nodes:    2142
! Number of elements: 2000

/PREP7
! Element type: ET, type #, name
ET, 1, PLANE42, , , 3

! Nodal coordinates: 'N', node_id, x-coord, y-coord, z-coord
N,	1,	0,	0,	0
N,	2,	0,	1,	0
N,	3,	0,	2,	0
N,	4,	0,	3,	0
N,	5,	0,	4,	0
N,	6,	0,	5,	0
N,	7,	0,	6,	0
N,	8,	0,	7,	0
N,	9,	0,	8,	0
N,	10,	0,	9,	0
N,	11,	0,	10,	0
N,	12,	0,	11,	0
N,	13,	0,	12,	0
N,	14,	0,	13,	0
N,	15,	0,	14,	0
N,	16,	0,	15,	0
N,	17,	0,	16,	0
N,	18,	1,	0,	0
N,	19,	1,	1,	0
N,	20,	1,	2,	0
! ... 2122 like lines cut

! Element connectivity: 'EN', element_id,  node_ids
! Material:             'MP', property_id, material_id, value 
! Custom property:      'R',  property_id, value 
! Material 1
MP,	EX,  	1,	1
MP,	EY,  	1,	0
MP,	GXY, 	1,	0
MP,	PRXY,	1,	0.3
MP,	DENS,	1,	1000
R, 	1,	1
! Connectivity
EN,	1,	1,	18,	19,	2
EN,	2,	2,	19,	20,	3
EN,	3,	3,	20,	21,	4
EN,	4,	4,	21,	22,	5
EN,	5,	5,	22,	23,	6
EN,	6,	6,	23,	24,	7
EN,	7,	7,	24,	25,	8
EN,	8,	8,	25,	26,	9
EN,	9,	9,	26,	27,	10
EN,	10,	10,	27,	28,	11
EN,	11,	11,	28,	29,	12
EN,	12,	12,	29,	30,	13
EN,	13,	13,	30,	31,	14
EN,	14,	14,	31,	32,	15
EN,	15,	15,	32,	33,	16
EN,	16,	16,	33,	34,	17
EN,	17,	18,	35,	36,	19
EN,	18,	19,	36,	37,	20
EN,	19,	20,	37,	38,	21
EN,	20,	21,	38,	39,	22
! ... 1980 like lines cut

! Nodal diplacement: 'D', node_id, 'UX / UY', value
D,	1,	UX,	0
D,	1,	UY,	0
D,	17,	UX,	0

! Nodal load: 'F', node_id, 'FX / FY', value
F,	2126,	FX,	1
F,	2142,	FX,	-1

! Surface load: 'SFE', element_id, face_id, 'PRES', 0, value

! Acceleration: 'ACEL', x-value, y-value, z-value
ACEL,	0.0,	0.0,	0.0

FINISH
