/TITLE, CONTINUUM GROUND STRUCTURE
! Created with:       FlExtract v1.13
! Element type:       PLANE42
! Number of nodes:    2259
! Number of elements: 2000

/PREP7
! Element type: ET, type #, name
ET, 1, PLANE42, , , 3

! Nodal coordinates: 'N', node_id, x-coord, y-coord, z-coord
N,	1,	0,	0,	0
N,	2,	0,	1,	0
N,	3,	0,	2,	0
N,	4,	0,	3,	0
N,	5,	0,	4,	0
N,	6,	0,	5,	0
N,	7,	0,	6,	0
N,	8,	0,	7,	0
N,	9,	0,	8,	0
N,	10,	0,	9,	0
N,	11,	0,	10,	0
N,	12,	0,	11,	0
N,	13,	0,	12,	0
N,	14,	0,	13,	0
N,	15,	0,	14,	0
N,	16,	0,	15,	0
N,	17,	0,	16,	0
N,	18,	0,	17,	0
N,	19,	0,	18,	0
N,	20,	0,	19,	0
! ... 2239 like lines cut

! Element connectivity: 'EN', element_id,  node_ids
! Material:             'MP', property_id, material_id, value 
! Custom property:      'R',  property_id, value 
! Material 1
MP,	EX,  	1,	1
MP,	EY,  	1,	0
MP,	GXY, 	1,	0
MP,	PRXY,	1,	0.3
MP,	DENS,	1,	1000
R, 	1,	1
! Connectivity
EN,	1,	1,	252,	253,	2
EN,	2,	2,	253,	254,	3
EN,	3,	3,	254,	255,	4
EN,	4,	4,	255,	256,	5
EN,	5,	5,	256,	257,	6
EN,	6,	6,	257,	258,	7
EN,	7,	7,	258,	259,	8
EN,	8,	8,	259,	260,	9
EN,	9,	9,	260,	261,	10
EN,	10,	10,	261,	262,	11
EN,	11,	11,	262,	263,	12
EN,	12,	12,	263,	264,	13
EN,	13,	13,	264,	265,	14
EN,	14,	14,	265,	266,	15
EN,	15,	15,	266,	267,	16
EN,	16,	16,	267,	268,	17
EN,	17,	17,	268,	269,	18
EN,	18,	18,	269,	270,	19
EN,	19,	19,	270,	271,	20
EN,	20,	20,	271,	272,	21
! ... 1980 like lines cut

! Nodal diplacement: 'D', node_id, 'UX / UY', value
D,	1,	UX,	0
D,	1,	UY,	0
D,	251,	UX,	0

! Nodal load: 'F', node_id, 'FX / FY', value
F,	2009,	FX,	1
F,	2259,	FX,	-1

! Surface load: 'SFE', element_id, face_id, 'PRES', 0, value

! Acceleration: 'ACEL', x-value, y-value, z-value
ACEL,	0.0,	0.0,	0.0

FINISH
