/TITLE, CONTINUUM GROUND STRUCTURE
! Created with:       FlExtract v1.13
! Element type:       PLANE42
! Number of nodes:    4002
! Number of elements: 2000

/PREP7
! Element type: ET, type #, name
ET, 1, PLANE42, , , 3

! Nodal coordinates: 'N', node_id, x-coord, y-coord, z-coord
N,	1,	0,	0,	0
N,	2,	0,	1,	0
N,	3,	1,	0,	0
N,	4,	1,	1,	0
N,	5,	2,	0,	0
N,	6,	2,	1,	0
N,	7,	3,	0,	0
N,	8,	3,	1,	0
N,	9,	4,	0,	0
N,	10,	4,	1,	0
N,	11,	5,	0,	0
N,	12,	5,	1,	0
N,	13,	6,	0,	0
N,	14,	6,	1,	0
N,	15,	7,	0,	0
N,	16,	7,	1,	0
N,	17,	8,	0,	0
N,	18,	8,	1,	0
N,	19,	9,	0,	0
N,	20,	9,	1,	0
! ... 3982 like lines cut

! Element connectivity: 'EN', element_id,  node_ids
! Material:             'MP', property_id, material_id, value 
! Custom property:      'R',  property_id, value 
! Material 1
MP,	EX,  	1,	1
MP,	EY,  	1,	0
MP,	GXY, 	1,	0
MP,	PRXY,	1,	0.3
MP,	DENS,	1,	1000
R, 	1,	1
! Connectivity
EN,	1,	1,	3,	4,	2
EN,	2,	3,	5,	6,	4
EN,	3,	5,	7,	8,	6
EN,	4,	7,	9,	10,	8
EN,	5,	9,	11,	12,	10
EN,	6,	11,	13,	14,	12
EN,	7,	13,	15,	16,	14
EN,	8,	15,	17,	18,	16
EN,	9,	17,	19,	20,	18
EN,	10,	19,	21,	22,	20
EN,	11,	21,	23,	24,	22
EN,	12,	23,	25,	26,	24
EN,	13,	25,	27,	28,	26
EN,	14,	27,	29,	30,	28
EN,	15,	29,	31,	32,	30
EN,	16,	31,	33,	34,	32
EN,	17,	33,	35,	36,	34
EN,	18,	35,	37,	38,	36
EN,	19,	37,	39,	40,	38
EN,	20,	39,	41,	42,	40
! ... 1980 like lines cut

! Nodal diplacement: 'D', node_id, 'UX / UY', value
D, 1, UX, 0.0
D, 1, UY, 0.0
D, 2, UX, 0.0

! Nodal load: 'F', node_id, 'FX / FY', value
F, 4002, FX, -1
F, 4001, FX, 1
! Surface load: 'SFE', element_id, face_id, 'PRES', 0, value

! Acceleration: 'ACEL', x-value, y-value, z-value
ACEL,	0.0,	0.0,	0.0

FINISH
